! Blank file in which we can put "overrides" for parameters
USE_REGRIDDING = True
REGRIDDING_COORDINATE_MODE = "RHO"
REGRIDDING_ANSWER_DATE = 20181231
INTERPOLATION_SCHEME = "PQM_IH4IH3"
BOUNDARY_EXTRAPOLATION = True
REMAPPING_SCHEME = "PQM_IH4IH3"
