! Continuous isopycnal mode + initialization
USE_REGRIDDING = True
REGRIDDING_COORDINATE_MODE = "RHO"
REGRIDDING_ANSWER_DATE = 20181231
INTERPOLATION_SCHEME = "P3M_IH4IH3"
BOUNDARY_EXTRAPOLATION = True
REMAPPING_SCHEME = "PPM_IH4"
